Circuit: **************** Power Discrete MOSFET Electrical Circuit Model *****************

Fatal Error: No analysis request found.
