Circuit: * C:\Users\vallejg\Documents\PWC&Me\FuzzyDuck\protection_simulation\phillipsAN10441.asc

Limiting rise time of source v4 to 5e-011
Limiting fall time of source v4 to 5e-011
Warning: Pscbe2 = 0 is not positive.
Warning: Pd = 0 is less than W.
Warning: Ps = 0 is less than W.
Warning: Pscbe2 = 0 is not positive.
Warning: Pd = 0 is less than W.
Warning: Ps = 0 is less than W.
Direct Newton iteration for .op point succeeded.
Heightened Def Con from 8.54823e-006 to 8.54823e-006

Date: Wed Oct 10 19:04:24 2018
Total elapsed time: 4.628 seconds.

tnom = 27
temp = 27
method = modified trap
totiter = 948667
traniter = 948657
tranpoints = 444508
accept = 342046
rejected = 102463
matrix size = 32
fillins = 12
solver = Normal
Matrix Compiler1: 2.62 KB object code size  0.4/0.3/[0.1]
Matrix Compiler2: off  [0.2]/0.2/0.2

